// Generated for: spectre
// Design library name: bertlink
// Design cell name: osc13
// Design view name: schematic
simulator lang=spectre
global 0 vdd!
include "model/nmos.scs"
include "model/pmos.scs"

// Library name: bertlink
// Cell name: inv
// View name: schematic
    M1 (Y A vdd! vdd!) pch w=2.0u l=45n
    M0 (Y A 0 0) nch w=1.0u l=45n
// End of subcircuit definition.

// Library name: bertlink
// Cell name: osc13
// View name: schematic
V0 (vdd! 0) vsource dc=1.0 type=dc
C0 (Y 0) capacitor c=10.0f

VInput1   (A     	0)    vsource type=pulse val0=0  val1=1.2 delay=0  rise=1f fall=1f width=100p period=200p

simulatorOptions options reltol=1e-3 vabstol=1e-6 iabstol=1e-12 temp=50 \
    tnom=0 vnom=1.0 scalem=1.0 scale=1.0 gmin=1e-12 rforce=0.1 maxnotes=5 maxwarns=5 \
    digits=5 cols=80 pivrel=1e-3 ckptclock=1800 rawfmt=psfxl method=trap \
    sensfile="../psf/sens.output" 
tran tran stop=10n write="spectre.ic" writefinal="spectre.fc" \
    annotate=status maxiters=5 
finalTimeOP info what=oppoint where=rawfile
modelParameter info what=models where=rawfile
element info what=inst where=rawfile
outputParameter info what=output where=rawfile
saveOptions options save=allpub pwr=all currents=all

*relxpert: age 0y
*relxpert: deltad 0.1
*relxpert: agemethod agemos
*relxpert: degsort
*relxpert: report_model_param
*relxpert: vthmethod spice
**relxpert: agelevel_only [level=101]
**relxpert: new_bo0_format

