// Generated for: spectre
// Generated on: Oct 27 23:19:54 2015
// Design library name: AgingLibrary
// Design cell name: inverterChain
// Design view name: schematic
simulator lang=spectre
global 0 vdd!
parameters p5vonly=0 phires=0
include "model/nmos.scs"
include "model/pmos.scs"

// Library name: bertlink
// Cell name: inv
// View name: schematic
subckt inv A Y
    M1 (Y A vdd! vdd!) pch w=2.0u l=45n
    M0 (Y A 0 0) nch w=1.0u l=45n
ends inv
// End of subcircuit definition.

V0 (vdd! 0) vsource dc=0.0 type=dc

VInput1   (A            0)    vsource type=pulse val0=0 val1=1.1 delay=0 rise=1ps fall=1ps width=20us period=40us

// Library name: AgingLibrary
// Cell name: inverterChain
// View name: schematic
I99 (net132 Y ) inv
I98 (net103 net105 ) inv
I97 (net109 net110 ) inv
I96 (net110 net132 ) inv
I95 (net107 net109 ) inv
I94 (net106 net107 ) inv
I93 (net105 net106 ) inv
I92 (net126 net101 ) inv
I91 (net101 net102 ) inv
I90 (net102 net103 ) inv
I89 (net92 net93 ) inv
I88 (net91 net92 ) inv
I87 (net124 net91 ) inv
I86 (net95 net96 ) inv
I85 (net96 net97 ) inv
I84 (net97 net99 ) inv
I83 (net100 net126 ) inv
I82 (net99 net100 ) inv
I81 (net93 net95 ) inv
I80 (net83 net85 ) inv
I79 (net89 net90 ) inv
I78 (net90 net124 ) inv
I77 (net87 net89 ) inv
I76 (net86 net87 ) inv
I75 (net85 net86 ) inv
I74 (net122 net81 ) inv
I73 (net81 net82 ) inv
I72 (net82 net83 ) inv
I71 (net72 net73 ) inv
I70 (net71 net72 ) inv
I69 (net131 net71 ) inv
I68 (net75 net76 ) inv
I67 (net76 net77 ) inv
I66 (net77 net79 ) inv
I65 (net80 net122 ) inv
I64 (net79 net80 ) inv
I63 (net73 net75 ) inv
I62 (net63 net65 ) inv
I61 (net69 net70 ) inv
I60 (net70 net131 ) inv
I59 (net67 net69 ) inv
I58 (net66 net67 ) inv
I57 (net65 net66 ) inv
I56 (net119 net61 ) inv
I55 (net61 net62 ) inv
I54 (net62 net63 ) inv
I53 (net52 net53 ) inv
I52 (net51 net52 ) inv
I51 (net117 net51 ) inv
I50 (net55 net56 ) inv
I49 (net56 net57 ) inv
I48 (net57 net59 ) inv
I47 (net60 net119 ) inv
I46 (net59 net60 ) inv
I45 (net53 net55 ) inv
I44 (net43 net45 ) inv
I43 (net49 net50 ) inv
I42 (net50 net117 ) inv
I41 (net47 net49 ) inv
I40 (net46 net47 ) inv
I39 (net45 net46 ) inv
I38 (net130 net41 ) inv
I37 (net41 net42 ) inv
I36 (net42 net43 ) inv
I35 (net32 net33 ) inv
I34 (net31 net32 ) inv
I33 (net129 net31 ) inv
I32 (net35 net36 ) inv
I31 (net36 net37 ) inv
I30 (net37 net39 ) inv
I29 (net40 net130 ) inv
I28 (net39 net40 ) inv
I27 (net33 net35 ) inv
I26 (net23 net25 ) inv
I25 (net29 net30 ) inv
I24 (net30 net129 ) inv
I23 (net27 net29 ) inv
I22 (net26 net27 ) inv
I21 (net25 net26 ) inv
I20 (net113 net21 ) inv
I19 (net21 net22 ) inv
I18 (net22 net23 ) inv
I17 (net12 net13 ) inv
I16 (net11 net12 ) inv
I15 (net128 net11 ) inv
I14 (net15 net16 ) inv
I13 (net16 net17 ) inv
I12 (net17 net19 ) inv
I11 (net20 net113 ) inv
I10 (net19 net20 ) inv
I9 (net13 net15 ) inv
I8 (net9 net10 ) inv
I7 (net10 net128 ) inv
I6 (net7 net9 ) inv
I5 (net6 net7 ) inv
I4 (net5 net6 ) inv
I3 (net3 net5 ) inv
I2 (net2 net3 ) inv
I1 (net1 net2 ) inv
I0 (A net1 ) inv
C100 (Y 0) capacitor c=10.0f
C99 (net132 0) capacitor c=10.0f
C98 (net126 0) capacitor c=10.0f
C97 (net124 0) capacitor c=10.0f
C96 (net122 0) capacitor c=10.0f
C95 (net131 0) capacitor c=10.0f
C94 (net119 0) capacitor c=10.0f
C93 (net117 0) capacitor c=10.0f
C92 (net130 0) capacitor c=10.0f
C91 (net129 0) capacitor c=10.0f
C90 (net113 0) capacitor c=10.0f
C89 (net128 0) capacitor c=10.0f
C88 (net101 0) capacitor c=10.0f
C87 (net102 0) capacitor c=10.0f
C86 (net105 0) capacitor c=10.0f
C85 (net106 0) capacitor c=10.0f
C84 (net109 0) capacitor c=10.0f
C83 (net110 0) capacitor c=10.0f
C82 (net103 0) capacitor c=10.0f
C81 (net107 0) capacitor c=10.0f
C80 (net97 0) capacitor c=10.0f
C79 (net93 0) capacitor c=10.0f
C78 (net100 0) capacitor c=10.0f
C77 (net99 0) capacitor c=10.0f
C76 (net96 0) capacitor c=10.0f
C75 (net95 0) capacitor c=10.0f
C74 (net92 0) capacitor c=10.0f
C73 (net91 0) capacitor c=10.0f
C72 (net81 0) capacitor c=10.0f
C71 (net82 0) capacitor c=10.0f
C70 (net85 0) capacitor c=10.0f
C69 (net86 0) capacitor c=10.0f
C68 (net89 0) capacitor c=10.0f
C67 (net90 0) capacitor c=10.0f
C66 (net83 0) capacitor c=10.0f
C65 (net87 0) capacitor c=10.0f
C64 (net77 0) capacitor c=10.0f
C63 (net73 0) capacitor c=10.0f
C62 (net80 0) capacitor c=10.0f
C61 (net79 0) capacitor c=10.0f
C60 (net76 0) capacitor c=10.0f
C59 (net75 0) capacitor c=10.0f
C58 (net72 0) capacitor c=10.0f
C57 (net71 0) capacitor c=10.0f
C56 (net61 0) capacitor c=10.0f
C55 (net62 0) capacitor c=10.0f
C54 (net65 0) capacitor c=10.0f
C53 (net66 0) capacitor c=10.0f
C52 (net69 0) capacitor c=10.0f
C51 (net70 0) capacitor c=10.0f
C50 (net63 0) capacitor c=10.0f
C49 (net67 0) capacitor c=10.0f
C48 (net57 0) capacitor c=10.0f
C47 (net53 0) capacitor c=10.0f
C46 (net60 0) capacitor c=10.0f
C45 (net59 0) capacitor c=10.0f
C44 (net56 0) capacitor c=10.0f
C43 (net55 0) capacitor c=10.0f
C42 (net52 0) capacitor c=10.0f
C41 (net51 0) capacitor c=10.0f
C40 (net41 0) capacitor c=10.0f
C39 (net42 0) capacitor c=10.0f
C38 (net45 0) capacitor c=10.0f
C37 (net46 0) capacitor c=10.0f
C36 (net49 0) capacitor c=10.0f
C35 (net50 0) capacitor c=10.0f
C34 (net43 0) capacitor c=10.0f
C33 (net47 0) capacitor c=10.0f
C32 (net37 0) capacitor c=10.0f
C31 (net33 0) capacitor c=10.0f
C30 (net40 0) capacitor c=10.0f
C29 (net39 0) capacitor c=10.0f
C28 (net36 0) capacitor c=10.0f
C27 (net35 0) capacitor c=10.0f
C26 (net32 0) capacitor c=10.0f
C25 (net31 0) capacitor c=10.0f
C24 (net21 0) capacitor c=10.0f
C23 (net22 0) capacitor c=10.0f
C22 (net25 0) capacitor c=10.0f
C21 (net26 0) capacitor c=10.0f
C20 (net29 0) capacitor c=10.0f
C19 (net30 0) capacitor c=10.0f
C18 (net23 0) capacitor c=10.0f
C17 (net27 0) capacitor c=10.0f
C16 (net17 0) capacitor c=10.0f
C15 (net13 0) capacitor c=10.0f
C14 (net20 0) capacitor c=10.0f
C13 (net19 0) capacitor c=10.0f
C12 (net16 0) capacitor c=10.0f
C11 (net15 0) capacitor c=10.0f
C10 (net12 0) capacitor c=10.0f
C9 (net11 0) capacitor c=10.0f
C8 (net7 0) capacitor c=10.0f
C7 (net3 0) capacitor c=10.0f
C6 (net10 0) capacitor c=10.0f
C5 (net9 0) capacitor c=10.0f
C4 (net6 0) capacitor c=10.0f
C3 (net5 0) capacitor c=10.0f
C1 (net2 0) capacitor c=10.0f
C0 (net1 0) capacitor c=10.0f

simulatorOptions options reltol=1e-3 vabstol=1e-6 iabstol=1e-12 temp=0 \
    tnom=70 scalem=1.0 scale=1.0 gmin=1e-12 rforce=0.1 maxnotes=5 maxwarns=5 \
    digits=5 cols=80 pivrel=1e-3 ckptclock=1800 rawfmt=psfxl method=trap \
    sensfile="../psf/sens.output"
tran tran stop=1ms write="spectre.ic" writefinal="spectre.fc" \
    annotate=status maxiters=5
finalTimeOP info what=oppoint where=rawfile
modelParameter info what=models where=rawfile
element info what=inst where=rawfile
outputParameter info what=output where=rawfile
saveOptions options save=lvlpub nestlvl=1

*relxpert: age 0h
*relxpert: deltad 0.1
*relxpert: agemethod agemos
*relxpert: degsort
*relxpert: report_model_param
*relxpert: vthmethod spice
**relxpert: agelevel_only [level=101]
**relxpert: new_bo0_format
