// Generated for: spectre
// Design library name: bertlink
// Design cell name: osc13
// Design view name: schematic
simulator lang=spectre
global 0 vdd!
include "model/nmos.scs"
include "model/pmos.scs"

// Library name: bertlink
// Cell name: inv
// View name: schematic
TNA (Y A net20 0) nch w=1.0u l=45n
TNB (net20 B 0 0) nch w=1.0u l=45n
TPA (Y A vdd! vdd!) pch w=2.0u l=45n
TPB (Y B vdd! vdd!) pch w=2.0u l=45n
// End of subcircuit definition.

 
// Parameter: 1. voltage level, 2. voltage level, delay, rising slope, falling slope,
//            pulse width, period
// <name> (+terminal –terminal) vsource type=pulse val0=v1 val1=v2  delay=td rise=tr   fall=tf   width=pw period=per
VInput1   (A     	0)    vsource type=pulse val0=0  val1=1.2 delay=0  rise=1f fall=1f width=100p period=200p
VInput2   (B     	0)    vsource type=pulse val0=0  val1=1.2 delay=0  rise=1f fall=1f width=100p period=200p

V0 (vdd! 0) vsource dc=1.0 type=dc
C0 (Y 0) capacitor c=10.0f


simulatorOptions options reltol=1e-3 vabstol=1e-6 iabstol=1e-12 temp=0 \
    tnom=0 vnom=1.0 scalem=1.0 scale=1.0 gmin=1e-12 rforce=0.1 maxnotes=5 maxwarns=5 \
    digits=5 cols=80 pivrel=1e-3 ckptclock=1800 rawfmt=psfxl method=trap \
    sensfile="../psf/sens.output" 
tran tran stop=50n write="spectre.ic" writefinal="spectre.fc" \
    annotate=status maxiters=5 
finalTimeOP info what=oppoint where=rawfile
modelParameter info what=models where=rawfile
element info what=inst where=rawfile
outputParameter info what=output where=rawfile
saveOptions options save=allpub currents=all pwr=all

*relxpert: age 0y
*relxpert: deltad 0.1
*relxpert: agemethod agemos
*relxpert: degsort
*relxpert: report_model_param
*relxpert: vthmethod spice
**relxpert: agelevel_only [level=101]
**relxpert: new_bo0_format

