// Generated for: spectre
// Generated on: Apr 17 06:00:21 2014
// Design library name: AgingBib
// Design cell name: c5315
// Design view name: schematic
simulator lang=spectre
global 0 vdd!
parameters p5vonly=0 phires=0
include "model/pmos.scs"
include "model/nmos.scs"

V0 (vdd! 0) vsource dc=0.0 type=dc

VInput1   (X_1  0)    vsource type=pulse val0=0 val1=1.1 delay=0us rise=1ps fall=1ps width=20us period=40us
VInput2   (X_4  0)    vsource type=pulse val0=0 val1=1.1 delay=1us rise=1ps fall=1ps width=20us period=40us
VInput3   (X_11  0)    vsource type=pulse val0=0 val1=1.1 delay=2us rise=1ps fall=1ps width=20us period=40us
VInput4   (X_14  0)    vsource type=pulse val0=0 val1=1.1 delay=3us rise=1ps fall=1ps width=20us period=40us
VInput5   (X_17  0)    vsource type=pulse val0=0 val1=1.1 delay=4us rise=1ps fall=1ps width=20us period=40us
VInput6   (X_20  0)    vsource type=pulse val0=0 val1=1.1 delay=5us rise=1ps fall=1ps width=20us period=40us
VInput7   (X_23  0)    vsource type=pulse val0=0 val1=1.1 delay=6us rise=1ps fall=1ps width=20us period=40us
VInput8   (X_24  0)    vsource type=pulse val0=0 val1=1.1 delay=7us rise=1ps fall=1ps width=20us period=40us
VInput9   (X_25  0)    vsource type=pulse val0=0 val1=1.1 delay=8us rise=1ps fall=1ps width=20us period=40us
VInput10   (X_26  0)    vsource type=pulse val0=0 val1=1.1 delay=9us rise=1ps fall=1ps width=20us period=40us
VInput11   (X_27   0)    vsource type=pulse val0=0 val1=1.1 delay=0us rise=1ps fall=1ps width=20us period=40us
VInput12   (X_31   0)    vsource type=pulse val0=0 val1=1.1 delay=1us rise=1ps fall=1ps width=20us period=40us
VInput13   (X_34   0)    vsource type=pulse val0=0 val1=1.1 delay=2us rise=1ps fall=1ps width=20us period=40us
VInput14   (X_37   0)    vsource type=pulse val0=0 val1=1.1 delay=3us rise=1ps fall=1ps width=20us period=40us
VInput15   (X_40   0)    vsource type=pulse val0=0 val1=1.1 delay=4us rise=1ps fall=1ps width=20us period=40us
VInput16   (X_43   0)    vsource type=pulse val0=0 val1=1.1 delay=5us rise=1ps fall=1ps width=20us period=40us
VInput17   (X_46   0)    vsource type=pulse val0=0 val1=1.1 delay=6us rise=1ps fall=1ps width=20us period=40us
VInput18   (X_49   0)    vsource type=pulse val0=0 val1=1.1 delay=7us rise=1ps fall=1ps width=20us period=40us
VInput19   (X_52   0)    vsource type=pulse val0=0 val1=1.1 delay=8us rise=1ps fall=1ps width=20us period=40us
VInput20   (X_53   0)    vsource type=pulse val0=0 val1=1.1 delay=9us rise=1ps fall=1ps width=20us period=40us
VInput21  (X_54   0)    vsource type=pulse val0=0 val1=1.1 delay=0us rise=1ps fall=1ps width=20us period=40us
VInput22  (X_61   0)    vsource type=pulse val0=0 val1=1.1 delay=1us rise=1ps fall=1ps width=20us period=40us
VInput23  (X_64   0)    vsource type=pulse val0=0 val1=1.1 delay=2us rise=1ps fall=1ps width=20us period=40us
VInput24  (X_67   0)    vsource type=pulse val0=0 val1=1.1 delay=3us rise=1ps fall=1ps width=20us period=40us
VInput25  (X_70   0)    vsource type=pulse val0=0 val1=1.1 delay=4us rise=1ps fall=1ps width=20us period=40us
VInput26  (X_73   0)    vsource type=pulse val0=0 val1=1.1 delay=5us rise=1ps fall=1ps width=20us period=40us
VInput27  (X_76   0)    vsource type=pulse val0=0 val1=1.1 delay=6us rise=1ps fall=1ps width=20us period=40us
VInput28  (X_79   0)    vsource type=pulse val0=0 val1=1.1 delay=7us rise=1ps fall=1ps width=20us period=40us
VInput29  (X_80   0)    vsource type=pulse val0=0 val1=1.1 delay=8us rise=1ps fall=1ps width=20us period=40us
VInput30  (X_81   0)    vsource type=pulse val0=0 val1=1.1 delay=9us rise=1ps fall=1ps width=20us period=40us
VInput31  (X_82   0)    vsource type=pulse val0=0 val1=1.1 delay=0us rise=1ps fall=1ps width=20us period=40us
VInput32  (X_83   0)    vsource type=pulse val0=0 val1=1.1 delay=1us rise=1ps fall=1ps width=20us period=40us
VInput33  (X_86   0)    vsource type=pulse val0=0 val1=1.1 delay=2us rise=1ps fall=1ps width=20us period=40us
VInput34  (X_87   0)    vsource type=pulse val0=0 val1=1.1 delay=3us rise=1ps fall=1ps width=20us period=40us
VInput35  (X_88   0)    vsource type=pulse val0=0 val1=1.1 delay=4us rise=1ps fall=1ps width=20us period=40us
VInput36  (X_91   0)    vsource type=pulse val0=0 val1=1.1 delay=5us rise=1ps fall=1ps width=20us period=40us
VInput37  (X_94   0)    vsource type=pulse val0=0 val1=1.1 delay=6us rise=1ps fall=1ps width=20us period=40us
VInput38  (X_97   0)    vsource type=pulse val0=0 val1=1.1 delay=7us rise=1ps fall=1ps width=20us period=40us
VInput39  (X_100   0)    vsource type=pulse val0=0 val1=1.1 delay=8us rise=1ps fall=1ps width=20us period=40us
VInput40  (X_103   0)    vsource type=pulse val0=0 val1=1.1 delay=9us rise=1ps fall=1ps width=20us period=40us
VInput41 (X_106   0)    vsource type=pulse val0=0 val1=1.1 delay=0us rise=1ps fall=1ps width=20us period=40us
VInput42  (X_109   0)    vsource type=pulse val0=0 val1=1.1 delay=1us rise=1ps fall=1ps width=20us period=40us
VInput43  (X_112   0)    vsource type=pulse val0=0 val1=1.1 delay=2us rise=1ps fall=1ps width=20us period=40us
VInput44  (X_113   0)    vsource type=pulse val0=0 val1=1.1 delay=3us rise=1ps fall=1ps width=20us period=40us
VInput45  (X_114   0)    vsource type=pulse val0=0 val1=1.1 delay=4us rise=1ps fall=1ps width=20us period=40us
VInput46  (X_115   0)    vsource type=pulse val0=0 val1=1.1 delay=5us rise=1ps fall=1ps width=20us period=40us
VInput47  (X_116   0)    vsource type=pulse val0=0 val1=1.1 delay=6us rise=1ps fall=1ps width=20us period=40us
VInput48  (X_117   0)    vsource type=pulse val0=0 val1=1.1 delay=7us rise=1ps fall=1ps width=20us period=40us
VInput49  (X_118   0)    vsource type=pulse val0=0 val1=1.1 delay=8us rise=1ps fall=1ps width=20us period=40us
VInput50  (X_119   0)    vsource type=pulse val0=0 val1=1.1 delay=9us rise=1ps fall=1ps width=20us period=40us
VInput51  (X_120   0)    vsource type=pulse val0=0 val1=1.1 delay=0us rise=1ps fall=1ps width=20us period=40us
VInput52  (X_121   0)    vsource type=pulse val0=0 val1=1.1 delay=1us rise=1ps fall=1ps width=20us period=40us
VInput53  (X_122   0)    vsource type=pulse val0=0 val1=1.1 delay=2us rise=1ps fall=1ps width=20us period=40us
VInput54  (X_123   0)    vsource type=pulse val0=0 val1=1.1 delay=3us rise=1ps fall=1ps width=20us period=40us
VInput55  (X_126   0)    vsource type=pulse val0=0 val1=1.1 delay=4us rise=1ps fall=1ps width=20us period=40us
VInput56  (X_127   0)    vsource type=pulse val0=0 val1=1.1 delay=5us rise=1ps fall=1ps width=20us period=40us
VInput57  (X_128   0)    vsource type=pulse val0=0 val1=1.1 delay=6us rise=1ps fall=1ps width=20us period=40us
VInput58  (X_129   0)    vsource type=pulse val0=0 val1=1.1 delay=7us rise=1ps fall=1ps width=20us period=40us
VInput59  (X_130   0)    vsource type=pulse val0=0 val1=1.1 delay=8us rise=1ps fall=1ps width=20us period=40us
VInput60 (X_131   0)    vsource type=pulse val0=0 val1=1.1 delay=9us rise=1ps fall=1ps width=20us period=40us
VInput61  (X_132   0)    vsource type=pulse val0=0 val1=1.1 delay=0us rise=1ps fall=1ps width=20us period=40us
VInput62  (X_135   0)    vsource type=pulse val0=0 val1=1.1 delay=1us rise=1ps fall=1ps width=20us period=40us
VInput63  (X_136   0)    vsource type=pulse val0=0 val1=1.1 delay=2us rise=1ps fall=1ps width=20us period=40us
VInput64  (X_137   0)    vsource type=pulse val0=0 val1=1.1 delay=3us rise=1ps fall=1ps width=20us period=40us
VInput65  (X_140   0)    vsource type=pulse val0=0 val1=1.1 delay=4us rise=1ps fall=1ps width=20us period=40us
VInput66  (X_141   0)    vsource type=pulse val0=0 val1=1.1 delay=5us rise=1ps fall=1ps width=20us period=40us
VInput67  (X_145   0)    vsource type=pulse val0=0 val1=1.1 delay=6us rise=1ps fall=1ps width=20us period=40us
VInput68  (X_146   0)    vsource type=pulse val0=0 val1=1.1 delay=7us rise=1ps fall=1ps width=20us period=40us
VInput69  (X_149   0)    vsource type=pulse val0=0 val1=1.1 delay=8us rise=1ps fall=1ps width=20us period=40us
VInput70  (X_152   0)    vsource type=pulse val0=0 val1=1.1 delay=9us rise=1ps fall=1ps width=20us period=40us
VInput71  (X_155   0)    vsource type=pulse val0=0 val1=1.1 delay=0us rise=1ps fall=1ps width=20us period=40us
VInput72  (X_158   0)    vsource type=pulse val0=0 val1=1.1 delay=1us rise=1ps fall=1ps width=20us period=40us
VInput73  (X_161   0)    vsource type=pulse val0=0 val1=1.1 delay=2us rise=1ps fall=1ps width=20us period=40us
VInput74  (X_164   0)    vsource type=pulse val0=0 val1=1.1 delay=3us rise=1ps fall=1ps width=20us period=40us
VInput75  (X_167   0)    vsource type=pulse val0=0 val1=1.1 delay=4us rise=1ps fall=1ps width=20us period=40us
VInput76  (X_170   0)    vsource type=pulse val0=0 val1=1.1 delay=5us rise=1ps fall=1ps width=20us period=40us
VInput77  (X_173   0)    vsource type=pulse val0=0 val1=1.1 delay=6us rise=1ps fall=1ps width=20us period=40us
VInput78  (X_176   0)    vsource type=pulse val0=0 val1=1.1 delay=7us rise=1ps fall=1ps width=20us period=40us
VInput79  (X_179   0)    vsource type=pulse val0=0 val1=1.1 delay=8us rise=1ps fall=1ps width=20us period=40us
VInput80  (X_182   0)    vsource type=pulse val0=0 val1=1.1 delay=9us rise=1ps fall=1ps width=20us period=40us
VInput81  (X_185   0)    vsource type=pulse val0=0 val1=1.1 delay=0us rise=1ps fall=1ps width=20us period=40us
VInput82  (X_188   0)    vsource type=pulse val0=0 val1=1.1 delay=1us rise=1ps fall=1ps width=20us period=40us
VInput83  (X_191   0)    vsource type=pulse val0=0 val1=1.1 delay=2us rise=1ps fall=1ps width=20us period=40us
VInput84  (X_194   0)    vsource type=pulse val0=0 val1=1.1 delay=3us rise=1ps fall=1ps width=20us period=40us
VInput85  (X_197   0)    vsource type=pulse val0=0 val1=1.1 delay=4us rise=1ps fall=1ps width=20us period=40us
VInput86  (X_200   0)    vsource type=pulse val0=0 val1=1.1 delay=5us rise=1ps fall=1ps width=20us period=40us
VInput87  (X_203   0)    vsource type=pulse val0=0 val1=1.1 delay=6us rise=1ps fall=1ps width=20us period=40us
VInput88  (X_206   0)    vsource type=pulse val0=0 val1=1.1 delay=7us rise=1ps fall=1ps width=20us period=40us
VInput89  (X_209   0)    vsource type=pulse val0=0 val1=1.1 delay=8us rise=1ps fall=1ps width=20us period=40us
VInput90  (X_210   0)    vsource type=pulse val0=0 val1=1.1 delay=9us rise=1ps fall=1ps width=20us period=40us
VInput91  (X_217   0)    vsource type=pulse val0=0 val1=1.1 delay=0us rise=1ps fall=1ps width=20us period=40us
VInput92  (X_218   0)    vsource type=pulse val0=0 val1=1.1 delay=1us rise=1ps fall=1ps width=20us period=40us
VInput93  (X_225   0)    vsource type=pulse val0=0 val1=1.1 delay=2us rise=1ps fall=1ps width=20us period=40us
VInput94  (X_226   0)    vsource type=pulse val0=0 val1=1.1 delay=3us rise=1ps fall=1ps width=20us period=40us
VInput95  (X_233   0)    vsource type=pulse val0=0 val1=1.1 delay=4us rise=1ps fall=1ps width=20us period=40us
VInput96  (X_234   0)    vsource type=pulse val0=0 val1=1.1 delay=5us rise=1ps fall=1ps width=20us period=40us
VInput97  (X_241   0)    vsource type=pulse val0=0 val1=1.1 delay=6us rise=1ps fall=1ps width=20us period=40us
VInput98  (X_242   0)    vsource type=pulse val0=0 val1=1.1 delay=7us rise=1ps fall=1ps width=20us period=40us
VInput99  (X_245   0)    vsource type=pulse val0=0 val1=1.1 delay=8us rise=1ps fall=1ps width=20us period=40us
VInput100  (X_248   0)    vsource type=pulse val0=0 val1=1.1 delay=9us rise=1ps fall=1ps width=20us period=40us
VInput101   (X_400   0)    vsource type=pulse val0=0 val1=1.1 delay=7us rise=1ps fall=1ps width=20us period=40us
VInput102   (X_411   0)    vsource type=pulse val0=0 val1=1.1 delay=8us rise=1ps fall=1ps width=20us period=40us
VInput103   (X_422   0)    vsource type=pulse val0=0 val1=1.1 delay=9us rise=1ps fall=1ps width=20us period=40us
VInput104   (X_435   0)    vsource type=pulse val0=0 val1=1.1 delay=0us rise=1ps fall=1ps width=20us period=40us
VInput105   (X_446   0)    vsource type=pulse val0=0 val1=1.1 delay=1us rise=1ps fall=1ps width=20us period=40us
VInput106   (X_457   0)    vsource type=pulse val0=0 val1=1.1 delay=2us rise=1ps fall=1ps width=20us period=40us
VInput107   (X_468   0)    vsource type=pulse val0=0 val1=1.1 delay=3us rise=1ps fall=1ps width=20us period=40us
VInput108   (X_479   0)    vsource type=pulse val0=0 val1=1.1 delay=4us rise=1ps fall=1ps width=20us period=40us
VInput109   (X_490   0)    vsource type=pulse val0=0 val1=1.1 delay=5us rise=1ps fall=1ps width=20us period=40us
VInput110   (X_503   0)    vsource type=pulse val0=0 val1=1.1 delay=6us rise=1ps fall=1ps width=20us period=40us
VInput111   (X_514   0)    vsource type=pulse val0=0 val1=1.1 delay=7us rise=1ps fall=1ps width=20us period=40us
VInput112   (X_523   0)    vsource type=pulse val0=0 val1=1.1 delay=8us rise=1ps fall=1ps width=20us period=40us
VInput113   (X_545   0)    vsource type=pulse val0=0 val1=1.1 delay=0us rise=1ps fall=1ps width=20us period=40us
VInput114   (X_549   0)    vsource type=pulse val0=0 val1=1.1 delay=1us rise=1ps fall=1ps width=20us period=40us
VInput115   (X_552   0)    vsource type=pulse val0=0 val1=1.1 delay=2us rise=1ps fall=1ps width=20us period=40us
VInput116   (X_556   0)    vsource type=pulse val0=0 val1=1.1 delay=3us rise=1ps fall=1ps width=20us period=40us
VInput117   (X_559   0)    vsource type=pulse val0=0 val1=1.1 delay=4us rise=1ps fall=1ps width=20us period=40us
VInput118   (X_562   0)    vsource type=pulse val0=0 val1=1.1 delay=5us rise=1ps fall=1ps width=20us period=40us
VInput119   (X_1497   0)    vsource type=pulse val0=0 val1=1.1 delay=6us rise=1ps fall=1ps width=20us period=40us
VInput120   (X_1689   0)    vsource type=pulse val0=0 val1=1.1 delay=7us rise=1ps fall=1ps width=20us period=40us
VInput121   (X_1690   0)    vsource type=pulse val0=0 val1=1.1 delay=8us rise=1ps fall=1ps width=20us period=40us
VInput122   (X_1691   0)    vsource type=pulse val0=0 val1=1.1 delay=9us rise=1ps fall=1ps width=20us period=40us
VInput123   (X_1694   0)    vsource type=pulse val0=0 val1=1.1 delay=0us rise=1ps fall=1ps width=20us period=40us
VInput124   (X_2174   0)    vsource type=pulse val0=0 val1=1.1 delay=1us rise=1ps fall=1ps width=20us period=40us
VInput125   (X_2358   0)    vsource type=pulse val0=0 val1=1.1 delay=2us rise=1ps fall=1ps width=20us period=40us
VInput126   (X_2824   0)    vsource type=pulse val0=0 val1=1.1 delay=3us rise=1ps fall=1ps width=20us period=40us
VInput127   (X_3173   0)    vsource type=pulse val0=0 val1=1.1 delay=4us rise=1ps fall=1ps width=20us period=40us
VInput128   (X_3546   0)    vsource type=pulse val0=0 val1=1.1 delay=5us rise=1ps fall=1ps width=20us period=40us
VInput129   (X_3548   0)    vsource type=pulse val0=0 val1=1.1 delay=6us rise=1ps fall=1ps width=20us period=40us
VInput130   (X_3550   0)    vsource type=pulse val0=0 val1=1.1 delay=7us rise=1ps fall=1ps width=20us period=40us
VInput131   (X_3552   0)    vsource type=pulse val0=0 val1=1.1 delay=8us rise=1ps fall=1ps width=20us period=40us
VInput132   (X_3717   0)    vsource type=pulse val0=0 val1=1.1 delay=9us rise=1ps fall=1ps width=20us period=40us
VInput133   (X_3724   0)    vsource type=pulse val0=0 val1=1.1 delay=0us rise=1ps fall=1ps width=20us period=40us
VInput134   (X_4087   0)    vsource type=pulse val0=0 val1=1.1 delay=1us rise=1ps fall=1ps width=20us period=40us
VInput135   (X_4088   0)    vsource type=pulse val0=0 val1=1.1 delay=2us rise=1ps fall=1ps width=20us period=40us
VInput136   (X_4089   0)    vsource type=pulse val0=0 val1=1.1 delay=3us rise=1ps fall=1ps width=20us period=40us
VInput137   (X_4090   0)    vsource type=pulse val0=0 val1=1.1 delay=4us rise=1ps fall=1ps width=20us period=40us
VInput138   (X_4091   0)    vsource type=pulse val0=0 val1=1.1 delay=5us rise=1ps fall=1ps width=20us period=40us
VInput139   (X_4092   0)    vsource type=pulse val0=0 val1=1.1 delay=6us rise=1ps fall=1ps width=20us period=40us
VInput140   (X_4115  0)    vsource type=pulse val0=0 val1=1.1 delay=7us rise=1ps fall=1ps width=20us period=40us
VInput141   (X_534   0)    vsource type=pulse val0=0 val1=1.1 delay=9us rise=1ps fall=1ps width=20us period=40us


// Library name: AgingBib
// Cell name: AND2_A
// View name: schematic
subckt AND2_A A B Z gnd vdd
    TNA (net29 A net34 gnd) nch w=1.0u l=45n
    TNB (net34 B gnd gnd) nch w=1.0u l=45n
    TNZ (Z net29 gnd gnd) nch w=1.0u l=45n
    TPB (net29 B vdd vdd) pch w=2.0u l=45n
    TPA (net29 A vdd vdd) pch w=2.0u l=45n
    TPZ (Z net29 vdd vdd) pch w=2.0u l=45n
ends AND2_A
// End of subcircuit definition.

// Library name: AgingBib
// Cell name: NAND2_A
// View name: schematic
subckt NAND2_A A B Z gnd vdd
    TNA (Z A net20 gnd) nch w=1.0u l=45n
    TNB (net20 B gnd gnd) nch w=1.0u l=45n
    TPA (Z A vdd vdd) pch w=2.0u l=45n
    TPB (Z B vdd vdd) pch w=2.0u l=45n
ends NAND2_A
// End of subcircuit definition.

// Library name: AgingBib
// Cell name: OR2_A
subckt OR2_A A B Z gnd vdd
    TNZ (Z net28 gnd gnd) nch w=1.0u l=45n
    TNB (net28 B gnd gnd) nch w=1.0u l=45n
    TNA (net28 A gnd gnd) nch w=1.0u l=45n
    TPZ (Z net28 vdd vdd) pch w=2.0u l=45n
    TPA (net28 A net34 vdd) pch w=2.0u l=45n
    TPB (net34 B vdd vdd) pch w=2.0u l=45n
ends OR2_A
// End of subcircuit definition.

// Library name: AgingBib
// Cell name: INVERT_I
// View name: schematic
subckt INVERT_I A Z gnd vdd
    TNAM2 (Z A gnd gnd) nch w=1.0u l=45n
    TNAM1 (Z A gnd gnd) nch w=1.0u l=45n
    TPAM1 (Z A vdd vdd) pch w=2.0u l=45n
    TPAM2 (Z A vdd vdd) pch w=2.0u l=45n
ends INVERT_I
// End of subcircuit definition.

// Library name: AgingBib
// Cell name: NOR2_A
// View name: schematic
subckt NOR2_A A B Z gnd vdd
    TNA (Z A gnd gnd) nch w=1.0u l=45n
    TNB (Z B gnd gnd) nch w=1.0u l=45n
    TPA (Z A net18 vdd) pch w=2.0u l=45n
    TPB (net18 B vdd vdd) pch w=2.0u l=45n
ends NOR2_A
// End of subcircuit definition.

// Library name: AgingBib
// Cell name: c5315
// View name: schematic
U2562 (n_637 n_1777 n_1653 0 vdd!) AND2_A
U2408 (n_1776 X_1694 n_1459 0 vdd!) AND2_A
U2564 (n_634 n_1776 n_1655 0 vdd!) AND2_A
U2069 (n_1673 n_1672 X_818 0 vdd!) AND2_A
U2555 (n_649 n_648 n_1673 0 vdd!) AND2_A
U3534 (n_283 n_284 n_282 0 vdd!) AND2_A
U2365 (n_1002 n_1001 n_1003 0 vdd!) AND2_A
U2631 (n_1003 n_574 X_824 0 vdd!) AND2_A
U2611 (n_1084 n_594 X_863 0 vdd!) AND2_A
U2601 (n_1099 n_604 X_873 0 vdd!) AND2_A
U2323 (n_1098 n_1097 n_1099 0 vdd!) AND2_A
U2185 (n_1465 n_1464 X_623 0 vdd!) AND2_A
U2554 (n_651 n_650 n_1465 0 vdd!) AND2_A
U2298 (n_1467 n_1334 n_1150 0 vdd!) AND2_A
U2101 (n_1609 n_1608 X_585 0 vdd!) AND2_A
U2473 (n_821 n_1153 n_822 0 vdd!) AND2_A
U2474 (n_1357 n_1448 n_821 0 vdd!) AND2_A
U2471 (n_825 n_827 n_824 0 vdd!) AND2_A
U2475 (n_824 n_822 n_1609 0 vdd!) AND2_A
U2407 (n_1777 X_1691 n_1460 0 vdd!) AND2_A
U2431 (n_1777 X_1689 n_1454 0 vdd!) AND2_A
U2551 (n_655 n_654 n_656 0 vdd!) AND2_A
U2348 (n_1492 n_1046 n_1047 0 vdd!) AND2_A
U2542 (n_676 n_672 n_673 0 vdd!) AND2_A
U2541 (n_675 n_674 n_676 0 vdd!) AND2_A
U2540 (n_677 n_1476 n_678 0 vdd!) AND2_A
U2539 (n_680 n_679 n_681 0 vdd!) AND2_A
U2291 (n_1168 n_1167 n_1169 0 vdd!) AND2_A
U2549 (n_658 n_1499 n_659 0 vdd!) AND2_A
U2290 (n_1171 n_1170 n_1172 0 vdd!) AND2_A
U2547 (n_1845 n_663 n_664 0 vdd!) AND2_A
U2286 (n_1180 n_1179 n_1181 0 vdd!) AND2_A
U2300 (n_1145 n_1144 n_1146 0 vdd!) AND2_A
U2353 (n_1032 n_1031 n_1033 0 vdd!) AND2_A
U2351 (n_1038 n_1037 n_1039 0 vdd!) AND2_A
U2350 (n_1041 n_1040 n_1042 0 vdd!) AND2_A
U2289 (n_1174 n_1173 n_1175 0 vdd!) AND2_A
U2221 (n_1365 n_1364 n_1366 0 vdd!) AND2_A
U2220 (n_1368 n_1367 n_1369 0 vdd!) AND2_A
U2218 (n_1374 n_1373 n_1375 0 vdd!) AND2_A
U2537 (n_1476 n_1484 n_683 0 vdd!) AND2_A
U2305 (n_1535 n_1137 n_1138 0 vdd!) AND2_A
U2260 (n_1255 n_1254 n_1256 0 vdd!) AND2_A
U3019 (n_540 n_1254 n_459 0 vdd!) AND2_A
U2504 (n_768 n_767 n_769 0 vdd!) AND2_A
U2513 (n_749 n_748 n_750 0 vdd!) AND2_A
U2306 (n_1135 n_1134 n_1136 0 vdd!) AND2_A
U2500 (n_774 n_1134 n_775 0 vdd!) AND2_A
U2501 (n_1138 n_772 n_773 0 vdd!) AND2_A
U2499 (n_780 n_776 n_777 0 vdd!) AND2_A
U2498 (n_779 n_778 n_780 0 vdd!) AND2_A
U2497 (n_781 n_1918 n_782 0 vdd!) AND2_A
U3225 (n_398 n_399 n_397 0 vdd!) AND2_A
U2262 (n_1249 n_1248 n_1250 0 vdd!) AND2_A
U2512 (n_752 n_751 n_753 0 vdd!) AND2_A
U2316 (n_1113 n_1112 n_1114 0 vdd!) AND2_A
U2510 (n_757 n_756 n_758 0 vdd!) AND2_A
U2313 (n_1124 n_1121 n_1122 0 vdd!) AND2_A
U2311 (n_1125 n_1569 n_1126 0 vdd!) AND2_A
U2148 (n_1533 n_1529 n_1530 0 vdd!) AND2_A
U2132 (n_1569 n_1568 n_1570 0 vdd!) AND2_A
U2314 (n_1119 n_1118 n_1120 0 vdd!) AND2_A
U2261 (n_1252 n_1251 n_1253 0 vdd!) AND2_A
U2509 (n_759 n_1563 n_760 0 vdd!) AND2_A
U2511 (n_1563 n_754 n_755 0 vdd!) AND2_A
U2259 (n_1258 n_1257 n_1259 0 vdd!) AND2_A
U2508 (n_762 n_761 n_763 0 vdd!) AND2_A
U2589 (n_616 n_615 X_1004 0 vdd!) AND2_A
U2340 (n_1056 n_1057 n_1055 0 vdd!) AND2_A
U2335 (n_1065 n_1064 n_1066 0 vdd!) AND2_A
U2334 (n_1068 n_1067 n_1069 0 vdd!) AND2_A
U2333 (n_1071 n_1070 n_1072 0 vdd!) AND2_A
U2517 (n_739 n_738 n_740 0 vdd!) AND2_A
U2516 (n_742 n_741 n_743 0 vdd!) AND2_A
U2343 (n_1054 n_1386 n_1627 0 vdd!) AND2_A
U2092 (n_1627 n_1626 X_854 0 vdd!) AND2_A
U2342 (n_1055 X_601 n_1054 0 vdd!) AND2_A
U2214 (n_1385 n_1384 n_1386 0 vdd!) AND2_A
U2530 (n_701 n_700 n_702 0 vdd!) AND2_A
U2522 (n_724 n_723 n_725 0 vdd!) AND2_A
U2524 (n_718 n_717 n_719 0 vdd!) AND2_A
U2527 (n_709 n_708 n_710 0 vdd!) AND2_A
U2526 (n_712 n_711 n_713 0 vdd!) AND2_A
U2525 (n_715 n_714 n_716 0 vdd!) AND2_A
U2519 (n_733 n_732 n_734 0 vdd!) AND2_A
U2518 (n_736 n_735 n_737 0 vdd!) AND2_A
U2528 (n_706 n_705 n_707 0 vdd!) AND2_A
U2529 (n_704 n_703 n_705 0 vdd!) AND2_A
U2296 (n_1906 n_1484 n_1154 0 vdd!) AND2_A
U2175 (n_1488 n_1487 n_1489 0 vdd!) AND2_A
U2627 (n_1012 n_578 X_828 0 vdd!) AND2_A
U2297 (n_1152 n_1151 n_1153 0 vdd!) AND2_A
U2361 (n_1011 n_1010 n_1012 0 vdd!) AND2_A
U2464 (n_833 n_835 n_1598 0 vdd!) AND2_A
U2106 (n_1599 n_1598 X_598 0 vdd!) AND2_A
U2467 (n_831 n_832 n_1599 0 vdd!) AND2_A
U2280 (n_1198 n_1197 n_1199 0 vdd!) AND2_A
U2225 (n_1353 n_1352 n_1354 0 vdd!) AND2_A
U2177 (n_1482 n_1488 n_1483 0 vdd!) AND2_A
U2176 (n_1485 n_1484 n_1486 0 vdd!) AND2_A
U2362 (n_1479 n_1478 n_1009 0 vdd!) AND2_A
U2625 (n_1015 n_580 X_830 0 vdd!) AND2_A
U2360 (n_1014 n_1013 n_1015 0 vdd!) AND2_A
U2281 (n_1195 n_1194 n_1196 0 vdd!) AND2_A
U2462 (n_836 n_834 n_835 0 vdd!) AND2_A
U2571 (n_842 n_1495 X_626 0 vdd!) AND2_A
U2453 (n_1477 n_843 n_842 0 vdd!) AND2_A
U2194 (n_1441 n_1440 n_1442 0 vdd!) AND2_A
U2193 (n_1444 n_1443 n_1445 0 vdd!) AND2_A
U2278 (n_1204 n_1203 n_1205 0 vdd!) AND2_A
U2231 (n_1336 n_1335 n_1337 0 vdd!) AND2_A
U2230 (n_1339 n_1338 n_1340 0 vdd!) AND2_A
U2623 (n_1018 n_582 X_832 0 vdd!) AND2_A
U2224 (n_1356 n_1355 n_1357 0 vdd!) AND2_A
U2359 (n_1017 n_1016 n_1018 0 vdd!) AND2_A
U2295 (n_1156 n_1155 n_1157 0 vdd!) AND2_A
U2363 (n_1007 n_1006 n_1008 0 vdd!) AND2_A
U2629 (n_1008 n_576 X_826 0 vdd!) AND2_A
U2279 (n_1201 n_1200 n_1202 0 vdd!) AND2_A
U2174 (n_1491 n_1490 n_1492 0 vdd!) AND2_A
U2543 (n_1499 n_670 n_671 0 vdd!) AND2_A
U2552 (n_665 n_1470 n_653 0 vdd!) AND2_A
U2545 (n_666 n_665 n_667 0 vdd!) AND2_A
U2235 (n_1473 n_1325 n_1326 0 vdd!) AND2_A
U2621 (n_1021 n_584 X_834 0 vdd!) AND2_A
U2358 (n_1020 n_1019 n_1021 0 vdd!) AND2_A
U2294 (n_1159 n_1158 n_1160 0 vdd!) AND2_A
U2192 (n_1447 n_1446 n_1448 0 vdd!) AND2_A
U2173 (n_1494 n_1493 n_1495 0 vdd!) AND2_A
U2346 (n_1050 n_1501 n_1493 0 vdd!) AND2_A
U2183 (n_1492 n_1468 n_1469 0 vdd!) AND2_A
U2223 (n_1359 n_1358 n_1360 0 vdd!) AND2_A
U2236 (n_1323 n_1322 n_1324 0 vdd!) AND2_A
U2217 (n_1377 n_1376 n_1378 0 vdd!) AND2_A
U2216 (n_1379 n_1491 n_1380 0 vdd!) AND2_A
U2553 (n_1499 n_1358 n_652 0 vdd!) AND2_A
U2171 (n_1500 n_1499 n_1501 0 vdd!) AND2_A
U2293 (n_1162 n_1161 n_1163 0 vdd!) AND2_A
U2357 (n_1023 n_1022 n_1024 0 vdd!) AND2_A
U2619 (n_1024 n_586 X_836 0 vdd!) AND2_A
U2282 (n_1192 n_1191 n_1193 0 vdd!) AND2_A
U2228 (n_1345 n_1344 n_1346 0 vdd!) AND2_A
U2234 (n_1328 n_1327 n_1329 0 vdd!) AND2_A
U2615 (n_1079 n_590 X_822 0 vdd!) AND2_A
U2330 (n_1078 n_1077 n_1079 0 vdd!) AND2_A
U2534 (n_689 X_534 n_690 0 vdd!) AND2_A
U2535 (n_687 n_686 n_688 0 vdd!) AND2_A
U2215 (n_1382 n_1381 n_1383 0 vdd!) AND2_A
U2212 (n_1390 n_1389 n_1391 0 vdd!) AND2_A
U2237 (n_1320 n_1319 n_1321 0 vdd!) AND2_A
U2276 (n_1210 n_1209 n_1211 0 vdd!) AND2_A
U2285 (n_1183 n_1182 n_1184 0 vdd!) AND2_A
U2284 (n_1186 n_1185 n_1187 0 vdd!) AND2_A
U2222 (n_1362 n_1361 n_1363 0 vdd!) AND2_A
U2355 (n_1027 n_1026 n_1028 0 vdd!) AND2_A
U2617 (n_1028 n_588 X_838 0 vdd!) AND2_A
U2292 (n_1165 n_1164 n_1166 0 vdd!) AND2_A
U2182 (n_1471 n_1470 n_1472 0 vdd!) AND2_A
U2233 (n_1331 n_1330 n_1479 0 vdd!) AND2_A
U2232 (n_1333 n_1332 n_1334 0 vdd!) AND2_A
U2451 (n_1334 n_1481 n_1708 0 vdd!) AND2_A
U2485 (n_808 n_807 n_809 0 vdd!) AND2_A
U2484 (n_811 n_810 n_812 0 vdd!) AND2_A
U2483 (n_814 n_813 n_815 0 vdd!) AND2_A
U2486 (n_805 n_804 n_806 0 vdd!) AND2_A
U2327 (n_1086 n_1085 n_1087 0 vdd!) AND2_A
U2609 (n_1087 n_596 X_865 0 vdd!) AND2_A
U2229 (n_1342 n_1341 n_1343 0 vdd!) AND2_A
U2172 (n_1497 n_1496 n_1498 0 vdd!) AND2_A
U2356 (n_1503 n_1497 n_1025 0 vdd!) AND2_A
U2469 (n_828 n_826 n_827 0 vdd!) AND2_A
U2163 (X_562 X_552 X_601 0 vdd!) AND2_A
U2048 (X_993 X_373 X_634 0 vdd!) AND2_A
U1874 (n_1333 n_1332 n_1846 0 vdd!) AND2_A
U2043 (X_923 X_145 X_810 0 vdd!) AND2_A
U2056 (X_923 n_1696 X_673 0 vdd!) AND2_A
U2344 (n_1052 n_1051 n_1053 0 vdd!) AND2_A
U2536 (n_684 n_1053 n_685 0 vdd!) AND2_A
U2532 (n_695 n_694 n_696 0 vdd!) AND2_A
U2533 (n_692 n_691 n_693 0 vdd!) AND2_A
U2367 (n_1717 n_996 n_997 0 vdd!) AND2_A
U2368 (n_994 n_993 n_995 0 vdd!) AND2_A
U2354 (n_1030 n_1029 n_1645 0 vdd!) AND2_A
U2366 (n_999 n_998 n_1000 0 vdd!) AND2_A
U2318 (n_1108 n_1111 n_1647 0 vdd!) AND2_A
U2317 (n_1110 n_1109 n_1111 0 vdd!) AND2_A
U2495 (n_785 n_784 n_786 0 vdd!) AND2_A
U2494 (n_787 X_374 n_788 0 vdd!) AND2_A
U2493 (n_790 n_789 n_791 0 vdd!) AND2_A
U2244 (n_1299 n_1298 n_1300 0 vdd!) AND2_A
U2197 (n_1433 n_1432 n_1434 0 vdd!) AND2_A
U2243 (n_1302 n_1301 n_1303 0 vdd!) AND2_A
U2245 (n_1296 n_1295 n_1297 0 vdd!) AND2_A
U2151 (n_1911 n_1528 n_1526 0 vdd!) AND2_A
U2131 (n_1720 n_1884 n_1572 0 vdd!) AND2_A
U2251 (n_1280 n_1279 n_1531 0 vdd!) AND2_A
U2450 (n_1420 n_1553 n_844 0 vdd!) AND2_A
U2202 (n_1419 n_1706 n_1420 0 vdd!) AND2_A
U2572 (n_844 n_1451 X_632 0 vdd!) AND2_A
U2138 (n_1552 n_1551 n_1553 0 vdd!) AND2_A
U2252 (n_1277 n_1276 n_1278 0 vdd!) AND2_A
U2515 (n_1520 n_1563 n_744 0 vdd!) AND2_A
U2134 (n_1563 n_1562 n_1564 0 vdd!) AND2_A
U2248 (n_1288 n_1287 n_1289 0 vdd!) AND2_A
U2480 (n_1223 n_1400 n_1606 0 vdd!) AND2_A
U2209 (n_1399 n_1398 n_1400 0 vdd!) AND2_A
U2198 (n_1430 n_1429 n_1431 0 vdd!) AND2_A
U2523 (n_721 n_720 n_722 0 vdd!) AND2_A
U2249 (n_1285 n_1284 n_1286 0 vdd!) AND2_A
U2135 (n_1560 n_1559 n_1561 0 vdd!) AND2_A
U2145 (n_1534 n_1560 n_1535 0 vdd!) AND2_A
U2514 (n_746 n_745 n_747 0 vdd!) AND2_A
U2210 (n_1396 n_1395 n_1397 0 vdd!) AND2_A
U2309 (n_1130 n_1129 n_1131 0 vdd!) AND2_A
U2274 (n_1216 n_1215 n_1217 0 vdd!) AND2_A
U2482 (n_816 n_1230 n_1607 0 vdd!) AND2_A
U2481 (n_817 n_1409 n_816 0 vdd!) AND2_A
U2479 (n_818 n_1403 n_817 0 vdd!) AND2_A
U2102 (n_1607 n_1606 X_575 0 vdd!) AND2_A
U2477 (n_820 n_1397 n_819 0 vdd!) AND2_A
U2153 (n_1521 n_1520 n_1522 0 vdd!) AND2_A
U2478 (n_1406 n_819 n_818 0 vdd!) AND2_A
U2613 (n_1082 n_592 X_861 0 vdd!) AND2_A
U2603 (n_1096 n_602 X_871 0 vdd!) AND2_A
U2154 (n_1535 n_1518 n_1519 0 vdd!) AND2_A
U1835 (n_1419 n_1706 n_1885 0 vdd!) AND2_A
U2676 (n_1269 n_1876 n_1542 0 vdd!) AND2_A
U2337 (n_1059 n_1058 n_1060 0 vdd!) AND2_A
U2277 (n_1207 n_1206 n_1208 0 vdd!) AND2_A
U2756 (n_519 n_521 n_517 0 vdd!) AND2_A
U2521 (n_727 n_726 n_728 0 vdd!) AND2_A
U2520 (n_730 n_729 n_731 0 vdd!) AND2_A
U2058 (X_141 n_1694 X_715 0 vdd!) AND2_A
U2558 (n_644 n_1816 n_645 0 vdd!) AND2_A
U2565 (n_632 n_1816 n_633 0 vdd!) AND2_A
U2055 (X_141 n_1697 X_639 0 vdd!) AND2_A
U2057 (X_141 n_1695 X_707 0 vdd!) AND2_A
U2559 (n_642 n_1815 n_643 0 vdd!) AND2_A
U2557 (n_1700 n_646 n_1704 0 vdd!) AND2_A
U2489 (n_800 X_411 n_801 0 vdd!) AND2_A
U2490 (n_798 n_797 n_799 0 vdd!) AND2_A
U2263 (n_1246 n_1245 n_1247 0 vdd!) AND2_A
U2250 (n_1282 n_1281 n_1283 0 vdd!) AND2_A
U2247 (n_1291 n_1290 n_1292 0 vdd!) AND2_A
U2563 (n_635 n_1815 n_636 0 vdd!) AND2_A
U2566 (n_1700 n_631 n_1699 0 vdd!) AND2_A
U1905 (X_31 X_27 n_1816 0 vdd!) AND2_A
U1904 (X_31 X_27 n_1815 0 vdd!) AND2_A
U2107 (X_31 X_27 n_1700 0 vdd!) AND2_A
U2266 (n_1237 n_1236 n_1238 0 vdd!) AND2_A
U2240 (n_1311 n_1310 n_1312 0 vdd!) AND2_A
U2265 (n_1240 n_1239 n_1241 0 vdd!) AND2_A
U2105 (n_1601 n_1600 X_610 0 vdd!) AND2_A
U2457 (n_839 n_840 n_1600 0 vdd!) AND2_A
U2460 (n_837 n_838 n_1601 0 vdd!) AND2_A
U2319 (n_1106 n_1105 n_1107 0 vdd!) AND2_A
U2597 (n_1107 n_608 X_877 0 vdd!) AND2_A
U2273 (n_1219 n_1218 n_1220 0 vdd!) AND2_A
U2255 (n_1268 n_1267 n_1269 0 vdd!) AND2_A
U2253 (n_1274 n_1273 n_1275 0 vdd!) AND2_A
U2246 (n_1294 n_1293 n_1571 0 vdd!) AND2_A
U2211 (n_1393 n_1392 n_1394 0 vdd!) AND2_A
U2492 (n_793 n_792 n_794 0 vdd!) AND2_A
U2324 (n_1095 n_1094 n_1096 0 vdd!) AND2_A
U2275 (n_1213 n_1212 n_1214 0 vdd!) AND2_A
U2329 (n_1081 n_1080 n_1082 0 vdd!) AND2_A
U2605 (n_1093 n_600 X_869 0 vdd!) AND2_A
U2325 (n_1092 n_1091 n_1093 0 vdd!) AND2_A
U2267 (n_1234 n_1233 n_1235 0 vdd!) AND2_A
U2254 (n_1271 n_1270 n_1272 0 vdd!) AND2_A
U2675 (n_1418 n_627 n_1541 0 vdd!) AND2_A
U2607 (n_1090 n_598 X_867 0 vdd!) AND2_A
U2269 (n_1229 n_1228 n_1230 0 vdd!) AND2_A
U2205 (n_1411 n_1410 n_1412 0 vdd!) AND2_A
U2204 (n_1414 n_1413 n_1415 0 vdd!) AND2_A
U2272 (n_1222 n_1221 n_1223 0 vdd!) AND2_A
U2271 (n_1888 n_1903 n_1224 0 vdd!) AND2_A
U2203 (n_1417 n_1416 n_1418 0 vdd!) AND2_A
U1817 (n_1417 n_1416 n_1903 0 vdd!) AND2_A
U2141 (n_1544 n_1549 n_1545 0 vdd!) AND2_A
U2139 (n_1549 n_1548 n_1550 0 vdd!) AND2_A
U2268 (n_1918 n_1231 n_1232 0 vdd!) AND2_A
U2491 (n_795 X_422 n_796 0 vdd!) AND2_A
U2270 (n_1226 n_1225 n_1227 0 vdd!) AND2_A
U2264 (n_1243 n_1242 n_1244 0 vdd!) AND2_A
U2326 (n_1089 n_1088 n_1090 0 vdd!) AND2_A
U2599 (n_1103 n_606 X_875 0 vdd!) AND2_A
U2321 (n_1102 n_1101 n_1103 0 vdd!) AND2_A
U2242 (n_1305 n_1304 n_1306 0 vdd!) AND2_A
U2238 (n_1317 n_1316 n_1318 0 vdd!) AND2_A